Info: SIMULATION PARAMETERS:
Info: TIMESTEP               2
Info: NUMBER OF STEPS        1000000
Info: STEPS PER CYCLE        20
Info: PERIODIC CELL BASIS 1  143.848 0 0
Info: PERIODIC CELL BASIS 2  0 143.703 0
Info: PERIODIC CELL BASIS 3  0 0 144.002
Info: PERIODIC CELL CENTER   0.0150112 -0.055484 0.0419379
Info: WRAPPING ALL CLUSTERS AROUND PERIODIC BOUNDARIES ON OUTPUT.
Info: FIRST LDB TIMESTEP     100
Info: LAST LDB TIMESTEP     -1
Info: HOM BACKGROUND SCALING 1
Info: PME BACKGROUND SCALING 1
Info: MIN ATOMS PER PATCH    40
Info: INITIAL TEMPERATURE    300
Info: CENTER OF MASS MOVING INITIALLY? NO
Info: DIELECTRIC             1
Info: EXCLUDE                SCALED ONE-FOUR
Info: 1-4 ELECTROSTATICS SCALED BY 0.5
Info: MODIFIED 1-4 VDW PARAMETERS WILL BE USED
Info: DCD FILENAME           final_eq.dcd
Info: DCD FREQUENCY          5000
Info: DCD FIRST STEP         5000
Info: DCD FILE WILL CONTAIN UNIT CELL DATA
Info: NO EXTENDED SYSTEM TRAJECTORY OUTPUT
Info: NO VELOCITY DCD OUTPUT
Info: NO FORCE DCD OUTPUT
Info: OUTPUT FILENAME        final_eq
Info: RESTART FILENAME       final_eq.restart
Info: RESTART FREQUENCY      10000
Info: SWITCHING ACTIVE
Info: SWITCHING ON           10.5
Info: SWITCHING OFF          12
Info: PAIRLIST DISTANCE      13.5
Info: PAIRLIST SHRINK RATE   0.01
Info: PAIRLIST GROW RATE     0.01
Info: PAIRLIST TRIGGER       0.3
Info: PAIRLISTS PER CYCLE    2
Info: PAIRLISTS ENABLED
Info: MARGIN                 0.48
Info: HYDROGEN GROUP CUTOFF  2.5
Info: PATCH DIMENSION        16.48
Info: ENERGY OUTPUT STEPS    500
Info: CROSSTERM ENERGY INCLUDED IN DIHEDRAL
Info: TIMING OUTPUT STEPS    5000
Info: PRESSURE OUTPUT STEPS  500
Info: LANGEVIN DYNAMICS ACTIVE
Info: LANGEVIN TEMPERATURE   300
Info: LANGEVIN USING BBK INTEGRATOR
Info: LANGEVIN DAMPING COEFFICIENT IS 1 INVERSE PS
Info: LANGEVIN DYNAMICS NOT APPLIED TO HYDROGENS
Info: LANGEVIN PISTON PRESSURE CONTROL ACTIVE
Info:        TARGET PRESSURE IS 1.01325 BAR
Info:     OSCILLATION PERIOD IS 100 FS
Info:             DECAY TIME IS 50 FS
Info:     PISTON TEMPERATURE IS 300 K
Info:       PRESSURE CONTROL IS GROUP-BASED
Info:    INITIAL STRAIN RATE IS 0 0 0
Info:       CELL FLUCTUATION IS ISOTROPIC
Info: PARTICLE MESH EWALD (PME) ACTIVE
Info: PME TOLERANCE               1e-06
Info: PME EWALD COEFFICIENT       0.257952
Info: PME INTERPOLATION ORDER     4
Info: PME GRID DIMENSIONS         144 144 160
Info: PME MAXIMUM GRID SPACING    1
Info: FULL ELECTROSTATIC EVALUATION FREQUENCY      2
Info: USING VERLET I (r-RESPA) MTS SCHEME.
Info: C1 SPLITTING OF LONG RANGE ELECTROSTATICS
Info: PLACING ATOMS IN PATCHES BY HYDROGEN GROUPS
Info: RIGID BONDS TO HYDROGEN : ALL
Info:         ERROR TOLERANCE : 1e-08
Info:          MAX ITERATIONS : 100
Info: RIGID WATER USING SETTLE ALGORITHM
Info: RANDOM NUMBER SEED     1010
Info: USE HYDROGEN BONDS?    NO
Info: COORDINATE PDB         final_heat.coor
Info: STRUCTURE FILE         system_autopsf.psf
Info: PARAMETER file: CHARMM format!
Info: PARAMETERS             par_all36_na.prm
Info: PARAMETERS             par_all36m_prot.prm
Info: PARAMETERS             toppar_water_ions_namd.str
Info: PARAMETERS             par_interface.prm
Info: PARAMETERS             par_all36_lipid.prm
Info: USING GEOMETRIC MEAN TO COMBINE L-J SIGMA PARAMETERS
Info: SUMMARY OF PARAMETERS:
Info: 393 BONDS
Info: 1072 ANGLES
Info: 2115 DIHEDRAL
Info: 54 IMPROPER
Info: 6 CROSSTERM
Info: 252 VDW
Info: 3 VDW_PAIRS
Info: 0 NBTHOLE_PAIRS
Info:
Info: STRUCTURE SUMMARY:
Info: 276179 ATOMS
Info: 185396 BONDS
Info: 98947 ANGLES
Info: 12588 DIHEDRALS
Info: 801 IMPROPERS
Info: 308 CROSSTERMS
Info: 0 EXCLUSIONS
Info: 273321 RIGID BONDS
Info: 555216 DEGREES OF FREEDOM
Info: 93172 HYDROGEN GROUPS
Info: 4 ATOMS IN LARGEST HYDROGEN GROUP
Info: 93172 MIGRATION GROUPS
Info: 4 ATOMS IN LARGEST MIGRATION GROUP
Info: TOTAL MASS = 1.67562e+06 amu
Info: TOTAL CHARGE = 2.97651e-06 e
Info: MASS DENSITY = 0.934752 g/cm^3
Info: ATOM DENSITY = 0.0927796 atoms/A^3
Info:
Info: ADDED 296723 IMPLICIT EXCLUSIONS
Info: NONBONDED TABLE R-SQUARED SPACING: 0.0625
Info: NONBONDED TABLE SIZE: 769 POINTS
Info: REMOVING COM VELOCITY 0.000439349 0.000309717 0.0258576
Info: Updated CUDA force table with 4096 elements.
Info: Updated CUDA LJ table with 252 x 252 elements.
Info: Found 315 unique exclusion lists needing 1144 bytes
ETITLE: TS BOND ANGLE DIHED IMPRP ELECT VDW BOUNDARY MISC KINETIC TOTAL TEMP POTENTIAL TOTAL3 TEMPAVG PRESSURE GPRESSURE VOLUME PRESSAVG GPRESSAVG
ENERGY: 0 804.2541 2394.1737 2683.9915 148.4027 -1140122.7836 174554.3874 0.0000 0.0000 165285.1180 -794252.4563 299.6140 -959537.5743 -793841.3846 299.6140 1286.3012 1322.9067 2976721.4087 1286.3012 1322.9067
ENERGY: 68000 763.0264 2400.8723 2629.2205 147.6285 -1065297.7691 133123.2128 0.0000 0.0000 165464.9273 -760768.8813 299.9400 -926233.8087 -760387.4205 299.6832 64.0882 98.4445 2790048.0892 3.4565 3.4039
ENERGY: 136000 776.7871 2332.0188 2619.8727 148.0199 -1064863.3531 132133.0793 0.0000 0.0000 165160.8449 -761692.7304 299.3888 -926853.5753 -761306.0036 299.0352 -50.0104 -16.1496 2790910.6005 -0.8528 -0.9072
ENERGY: 203500 781.1047 2301.4602 2623.9595 178.6793 -1064628.9772 131600.7074 0.0000 0.0000 165638.9208 -761504.1454 300.2554 -927143.0662 -761126.0451 299.4329 -68.9548 -36.9848 2785283.5407 2.0245 1.9952
ENERGY: 271500 769.4140 2464.4359 2577.7491 153.7778 -1065315.6564 132518.3615 0.0000 0.0000 164956.3059 -761875.6123 299.0180 -926831.9182 -761498.8234 299.1860 -30.6952 2.7478 2791569.7625 -1.2421 -1.2494
ENERGY: 339500 802.5696 2340.5549 2609.1022 152.0853 -1064817.7192 132368.3103 0.0000 0.0000 165466.4171 -761078.6797 299.9427 -926545.0968 -760705.7433 299.4938 -21.0979 11.1213 2791198.3064 0.6056 0.5893
