Info: SIMULATION PARAMETERS:
Info: TIMESTEP               2
Info: NUMBER OF STEPS        30000
Info: STEPS PER CYCLE        20
Info: PERIODIC CELL BASIS 1  143.848 0 0
Info: PERIODIC CELL BASIS 2  0 143.703 0
Info: PERIODIC CELL BASIS 3  0 0 144.002
Info: PERIODIC CELL CENTER   0.0150112 -0.055484 0.0419379
Info: WRAPPING ALL CLUSTERS AROUND PERIODIC BOUNDARIES ON OUTPUT.
Info: FIRST LDB TIMESTEP     100
Info: LAST LDB TIMESTEP     -1
Info: HOM BACKGROUND SCALING 1
Info: PME BACKGROUND SCALING 1
Info: MIN ATOMS PER PATCH    40
Info: INITIAL TEMPERATURE    0
Info: CENTER OF MASS MOVING INITIALLY? NO
Info: DIELECTRIC             1
Info: EXCLUDE                SCALED ONE-FOUR
Info: 1-4 ELECTROSTATICS SCALED BY 0.5
Info: MODIFIED 1-4 VDW PARAMETERS WILL BE USED
Info: DCD FILENAME           final_heat.dcd
Info: DCD FREQUENCY          200
Info: DCD FIRST STEP         200
Info: DCD FILE WILL CONTAIN UNIT CELL DATA
Info: NO EXTENDED SYSTEM TRAJECTORY OUTPUT
Info: NO VELOCITY DCD OUTPUT
Info: NO FORCE DCD OUTPUT
Info: OUTPUT FILENAME        final_heat
Info: RESTART FILENAME       final_heat.restart
Info: RESTART FREQUENCY      500
Info: SWITCHING ACTIVE
Info: SWITCHING ON           10.5
Info: SWITCHING OFF          12
Info: PAIRLIST DISTANCE      13.5
Info: PAIRLIST SHRINK RATE   0.01
Info: PAIRLIST GROW RATE     0.01
Info: PAIRLIST TRIGGER       0.3
Info: PAIRLISTS PER CYCLE    2
Info: PAIRLISTS ENABLED
Info: MARGIN                 0
Info: HYDROGEN GROUP CUTOFF  2.5
Info: PATCH DIMENSION        16
Info: ENERGY OUTPUT STEPS    100
Info: CROSSTERM ENERGY INCLUDED IN DIHEDRAL
Info: TIMING OUTPUT STEPS    1000
Info: PRESSURE OUTPUT STEPS  100
Info: VELOCITY REASSIGNMENT FREQ  1
Info: VELOCITY REASSIGNMENT TEMP  0
Info: VELOCITY REASSIGNMENT INCR  0.01
Info: VELOCITY REASSIGNMENT HOLD  300
Info: PARTICLE MESH EWALD (PME) ACTIVE
Info: PME TOLERANCE               1e-06
Info: PME EWALD COEFFICIENT       0.257952
Info: PME INTERPOLATION ORDER     4
Info: PME GRID DIMENSIONS         144 144 160
Info: PME MAXIMUM GRID SPACING    1
Info: FULL ELECTROSTATIC EVALUATION FREQUENCY      2
Info: USING VERLET I (r-RESPA) MTS SCHEME.
Info: C1 SPLITTING OF LONG RANGE ELECTROSTATICS
Info: PLACING ATOMS IN PATCHES BY HYDROGEN GROUPS
Info: RIGID BONDS TO HYDROGEN : ALL
Info:         ERROR TOLERANCE : 1e-08
Info:          MAX ITERATIONS : 100
Info: RIGID WATER USING SETTLE ALGORITHM
Info: RANDOM NUMBER SEED     1010
Info: USE HYDROGEN BONDS?    NO
Info: COORDINATE PDB         final_min.coor
Info: STRUCTURE FILE         system_autopsf.psf
Info: PARAMETER file: CHARMM format!
Info: PARAMETERS             par_all36_na.prm
Info: PARAMETERS             par_all36m_prot.prm
Info: PARAMETERS             toppar_water_ions_namd.str
Info: PARAMETERS             par_interface.prm
Info: PARAMETERS             par_all36_lipid.prm
Info: USING GEOMETRIC MEAN TO COMBINE L-J SIGMA PARAMETERS
Info: SUMMARY OF PARAMETERS:
Info: 393 BONDS
Info: 1072 ANGLES
Info: 2115 DIHEDRAL
Info: 54 IMPROPER
Info: 6 CROSSTERM
Info: 252 VDW
Info: 3 VDW_PAIRS
Info: 0 NBTHOLE_PAIRS
Info: STRUCTURE SUMMARY:
Info: 276179 ATOMS
Info: 185396 BONDS
Info: 98947 ANGLES
Info: 12588 DIHEDRALS
Info: 801 IMPROPERS
Info: 308 CROSSTERMS
Info: 0 EXCLUSIONS
Info: 273321 RIGID BONDS
Info: 555213 DEGREES OF FREEDOM
Info: 93172 HYDROGEN GROUPS
Info: 4 ATOMS IN LARGEST HYDROGEN GROUP
Info: 93172 MIGRATION GROUPS
Info: 4 ATOMS IN LARGEST MIGRATION GROUP
Info: TOTAL MASS = 1.67562e+06 amu
Info: TOTAL CHARGE = 2.97651e-06 e
Info: MASS DENSITY = 0.934752 g/cm^3
Info: ATOM DENSITY = 0.0927796 atoms/A^3
Info: ADDED 296723 IMPLICIT EXCLUSIONS
Info: NONBONDED TABLE R-SQUARED SPACING: 0.0625
Info: NONBONDED TABLE SIZE: 769 POINTS
Info: REMOVING COM VELOCITY 0 0 0
Info: Updated CUDA force table with 4096 elements.
Info: Updated CUDA LJ table with 252 x 252 elements.
Info: Found 315 unique exclusion lists needing 1144 bytes
ETITLE: TS BOND ANGLE DIHED IMPRP ELECT VDW BOUNDARY MISC KINETIC TOTAL TEMP POTENTIAL TOTAL3 TEMPAVG PRESSURE GPRESSURE VOLUME PRESSAVG GPRESSAVG
ENERGY: 0 120.1300 608.0739 2281.7800 32.7076 -1354422.9845 202106.7638 0.0000 0.0000 0.0000 -1149273.5291 0.0000 -1149273.5291 -1149265.4484 0.0000 -3650.0076 -3606.1025 2976721.4087 -3650.0076 -3606.1025
ENERGY: 6000 244.8993 957.9362 2341.1878 60.4752 -1331322.6438 204493.6054 0.0000 0.0000 33122.8649 -1090101.6750 60.0425 -1123224.5400 -1089948.6545 59.4894 -2412.9439 -2368.6276 2976721.4087 -2380.5598 -2380.5501
ENERGY: 12000 396.3178 1330.4130 2429.3584 78.9098 -1294720.3909 202336.0668 0.0000 0.0000 66096.7003 -1022052.6249 119.8148 -1088149.3252 -1021982.3696 119.4744 -1266.9089 -1226.3319 2976721.4087 -1244.1655 -1244.2173
ENERGY: 18000 531.7318 1667.1367 2529.0670 105.8995 -1251395.1328 196526.7883 0.0000 0.0000 99271.2296 -950763.2800 179.9510 -1050034.5096 -950459.1334 179.5109 -296.1545 -256.5099 2976721.4087 -259.5639 -259.5152
ENERGY: 24000 627.4727 2039.6522 2627.6375 149.3927 -1201045.8546 187729.1671 0.0000 0.0000 132529.9080 -875342.6244 240.2396 -1007872.5324 -875116.0917 239.5129 574.5219 614.3794 2976721.4087 603.2188 603.3366
ENERGY: 30000 804.6604 2395.3825 2684.0928 148.4657 -1140122.2539 174555.4663 0.0000 0.0000 165619.2912 -793914.8951 300.2214 -959534.1863 -793747.1118 299.5643 1289.0979 1324.9614 2976721.4087 1327.6575 1327.6083
